[General]
network = hnocs.topologies.TaskMesh
sim-time-limit = 1ms
record-eventlog = false
**.vector-recording = false

**.rows    = 4
**.columns = 4

# Application
**.pe[*].application = "cnn_inference"

# Router sub-module types
**.routerType  = "hnocs.routers.hier.Router"
**.portType    = "hnocs.routers.hier.Port"
**.inPortType  = "hnocs.routers.hier.inPort.InPortSync"
**.OPCalcType  = "hnocs.routers.hier.opCalc.static.XYOPCalc"
**.VCCalcType  = "hnocs.routers.hier.vcCalc.free.FLUVCCalc"
**.schedType   = "hnocs.routers.hier.sched.wormhole.SchedSync"

# Global NoC parameters
**.numVCs        = 2
**.flitSize      = 4B
**.statStartTime = 1us

# Power model
**.pe[*].powerIdle        = 0.1W
**.pe[*].powerCompute     = 2.0W
**.pe[*].powerSendPerFlit = 0.1nJ
**.pe[*].powerRecvPerFlit = 0.05nJ

# Power trace
**.pe[*].enablePowerTrace    = true
**.pe[*].powerTraceFile      = "results/cnn_power.csv"
**.pe[*].hotspotTraceFile    = "results/cnn_hotspot.trace"
**.pe[*].powerSampleInterval = 1us

# InPort
**.inPort.flitsPerVC        = 4
**.inPort.collectPerHopWait = false

# Scheduler
**.sched.arbitration_type = 0
**.sched.freeRunningClk   = false
**.heterogeneous          = false
**.givenTclk              = false
**.tClk                   = 2ns

result-dir = results
